[TITLE]


[JUNCTIONS]
;ID              	Elev        	Demand      	Pattern         
 6               	0           	0.00        	                	;
 7               	0           	0.00        	                	;
 8               	0           	0.00        	                	;
 9               	0           	0.00        	                	;
 10              	0           	0.00        	                	;
 11              	0           	0.00        	                	;
 12              	0           	0.00        	                	;
 13              	0           	0.00        	                	;
 14              	0           	0.50        	Demanda         	;
 15              	0           	0.50        	Demanda         	;
 16              	0           	0.50        	Demanda         	;
 17              	0           	0.50        	Demanda         	;
 18              	0           	0.50        	Demanda         	;
 19              	0           	0.50        	Demanda         	;
 20              	0           	0.50        	Demanda         	;
 21              	0           	0.50        	Demanda         	;
 22              	0           	0.50        	Demanda         	;
 23              	0           	0.50        	Demanda         	;
 24              	0           	0.50        	Demanda         	;
 25              	0           	0.50        	Demanda         	;
 26              	0           	0.50        	Demanda         	;
 27              	0           	0.50        	Demanda         	;
 28              	0           	0.50        	Demanda         	;
 29              	0           	0.50        	Demanda         	;

[RESERVOIRS]
;ID              	Head        	Pattern         
 4               	1.5         	                	;

[TANKS]
;ID              	Elevation   	InitLevel   	MinLevel    	MaxLevel    	Diameter    	MinVol      	VolCurve        	Overflow
 1               	9           	0.6         	0           	0.8         	1.9544      	0           	                	;
 2               	6           	0.6         	0           	0.8         	1.9544      	0           	                	;

[PIPES]
;ID              	Node1           	Node2           	Length      	Diameter    	Roughness   	MinorLoss   	Status
 1               	1               	2               	2           	115         	130         	0           	Closed	;
 3               	9               	1               	8           	40          	130         	0           	Open  	;
 4               	10              	1               	8           	40          	130         	0           	Open  	;
 5               	11              	1               	8           	40          	130         	0           	Open  	;
 9               	4               	6               	1           	60          	130         	0           	Open  	;
 10              	4               	7               	1           	60          	130         	0           	Open  	;
 11              	4               	8               	1           	60          	130         	0           	Open  	;
 13              	1               	12              	10          	115         	130         	0           	Open  	;
 14              	2               	12              	8           	115         	130         	0           	Closed	;
 16              	12              	13              	30          	115         	130         	0           	Open  	;
 19              	13              	14              	1.5         	50          	130         	0           	Open  	;
 20              	14              	18              	1.5         	50          	130         	0           	Open  	;
 21              	18              	22              	1.5         	50          	130         	0           	Open  	;
 22              	22              	26              	1.5         	50          	130         	0           	Open  	;
 23              	14              	15              	1.5         	50          	130         	0           	Open  	;
 24              	18              	19              	1.5         	50          	130         	0           	Open  	;
 25              	22              	23              	1.5         	50          	130         	0           	Open  	;
 26              	26              	27              	1.5         	50          	130         	0           	Open  	;
 27              	15              	19              	1.5         	50          	130         	0           	Open  	;
 28              	19              	23              	1.5         	50          	130         	0           	Open  	;
 29              	23              	27              	1.5         	50          	130         	0           	Open  	;
 30              	15              	16              	1.5         	50          	130         	0           	Open  	;
 31              	19              	20              	1.5         	50          	130         	0           	Open  	;
 32              	23              	24              	1.5         	50          	130         	0           	Open  	;
 33              	27              	28              	1.5         	50          	130         	0           	Open  	;
 34              	16              	20              	1.5         	50          	130         	0           	Open  	;
 35              	20              	24              	1.5         	50          	130         	0           	Open  	;
 36              	24              	28              	1.5         	50          	130         	0           	Open  	;
 37              	16              	17              	1.5         	50          	130         	0           	Open  	;
 38              	20              	21              	1.5         	50          	130         	0           	Open  	;
 39              	24              	25              	1.5         	50          	130         	0           	Open  	;
 40              	28              	29              	1.5         	50          	130         	0           	Open  	;
 41              	17              	21              	1.5         	50          	130         	0           	Open  	;
 42              	21              	25              	1.5         	50          	130         	0           	Open  	;
 43              	25              	29              	1.5         	50          	130         	0           	Open  	;
 44              	11              	10              	0.5         	40          	130         	0           	Open  	;
 45              	10              	9               	0.5         	40          	130         	0           	Open  	;

[PUMPS]
;ID              	Node1           	Node2           	Parameters
 6               	8               	9               	HEAD Bomba	;
 7               	7               	10              	HEAD Bomba	;
 8               	6               	11              	HEAD Bomba	;

[VALVES]
;ID              	Node1           	Node2           	Diameter    	Type	Setting     	MinorLoss   

[TAGS]

[DEMANDS]
;Junction        	Demand      	Pattern         	Category

[STATUS]
;ID              	Status/Setting

[PATTERNS]
;ID              	Multipliers
;
 Demanda         	0.6         	0.5         	0.4         	0.4         	0.6         	1           
 Demanda         	1.2         	1.3         	1.1         	1.1         	1.2         	1.5         
 Demanda         	1.3         	1.1         	1.1         	1.1         	1.1         	1.3         
 Demanda         	1.5         	1.2         	1           	0.9         	0.8         	0.6         

[CURVES]
;ID              	X-Value     	Y-Value
;PUMP: PUMP: PUMP: PUMP: PUMP: PUMP: BOMBA: 
 Bomba           	0           	21.6        
 Bomba           	1.39        	21.5        
 Bomba           	2.78        	21.4        
 Bomba           	4.17        	21          
 Bomba           	5.56        	20.2        
 Bomba           	6.94        	19          
 Bomba           	8.33        	17.5        
 Bomba           	9.72        	14.5        

[CONTROLS]







[RULES]







[ENERGY]
 Global Efficiency  	75
 Global Price       	0
 Demand Charge      	0

[EMITTERS]
;Junction        	Coefficient

[QUALITY]
;Node            	InitQual

[SOURCES]
;Node            	Type        	Quality     	Pattern

[REACTIONS]
;Type     	Pipe/Tank       	Coefficient


[REACTIONS]
 Order Bulk            	1
 Order Tank            	1
 Order Wall            	1
 Global Bulk           	0
 Global Wall           	0
 Limiting Potential    	0
 Roughness Correlation 	0

[MIXING]
;Tank            	Model

[TIMES]
 Duration           	24:00 
 Hydraulic Timestep 	1:00 
 Quality Timestep   	0:05 
 Pattern Timestep   	1:00 
 Pattern Start      	0:00 
 Report Timestep    	1:00 
 Report Start       	0:00 
 Start ClockTime    	0:00
 Statistic          	NONE

[REPORT]
 Status             	No
 Summary            	No
 Page               	0
 Nodes					All

[OPTIONS]
 Units              	LPS
 Headloss           	H-W
 Specific Gravity   	1
 Viscosity          	1
 Trials             	40
 Accuracy           	0.001
 CHECKFREQ          	2
 MAXCHECK           	10
 DAMPLIMIT          	0
 Unbalanced         	Continue 10
 Pattern            	1
 Demand Multiplier  	1.0
 Emitter Exponent   	0.5
 Quality            	None mg/L
 Diffusivity        	1
 Tolerance          	0.01

[COORDINATES]
;Node            	X-Coord           	Y-Coord
6               	-2682.930         	5110.860          
7               	-2649.670         	6441.240          
8               	-2671.840         	7483.370          
9               	-1618.630         	7494.460          
10              	-1651.880         	6463.410          
11              	-1696.230         	5110.860          
12              	2483.370          	6751.660          
13              	2971.180          	8780.490          
14              	4356.980          	8758.310          
15              	4434.590          	7638.580          
16              	4467.850          	6474.500          
17              	4534.370          	5033.260          
18              	5842.570          	8824.830          
19              	5875.830          	7793.790          
20              	5886.920          	6574.280          
21              	5975.610          	5044.350          
22              	7405.760          	8946.780          
23              	7405.760          	7838.140          
24              	7394.680          	6596.450          
25              	7427.940          	5055.430          
26              	8913.530          	8980.040          
27              	8869.180          	7815.960          
28              	8980.040          	6596.450          
29              	9035.480          	5055.430          
4               	-4478.940         	6441.240          
1               	-277.160          	6474.500          
2               	1252.770          	5776.050          

[VERTICES]
;Link            	X-Coord           	Y-Coord
3               	-1230.600         	7416.850          
3               	-842.570          	7228.380          
3               	-598.670          	6929.050          
4               	-1308.200         	6463.410          
4               	-997.780          	6474.500          
4               	-609.760          	6485.590          
5               	-1075.390         	5354.770          
5               	-687.360          	5687.360          
5               	-465.630          	6019.960          
13              	986.700           	7195.120          
16              	2394.680          	8802.660          

[LABELS]
;X-Coord             Y-Coord             Label & Anchor Node
-643.020          	6873.610          	"Tanque superior"	
731.710           	5576.500          	"Tanque inferior"	
-5565.410         	6319.290          	"Reservatório de sucção"	
4911.310          	8281.600          	"Anel 1"	
4988.910          	7062.080          	"Anel 2"	
5033.260          	5709.530          	"Anel 3"	
6441.240          	8325.940          	"Anel 4"	
6485.590          	7095.340          	"Anel 5"	
6529.930          	5742.790          	"Anel 6"	
7937.920          	8359.200          	"Anel 7"	
8026.610          	7106.430          	"Anel 8"	
8070.950          	5753.880          	"Anel 9"	

[BACKDROP]
  DIMENSIONS  	0.000             	0.000             	10000.000         	10000.000         
 UNITS          	None
 FILE           	
 OFFSET         	0.00            	0.00            

[END]
